* PSpice Model Editor - Version 16.6.0

*$
*BeginSpec
*XC:
*TC:
*RR: Id=0 Rdson=0 Vgs=10
*ZL: Idss=0 Vds=0
*TO: Qgd=0 Qgs=0 Vds=50 Id=50
*OC:
*ST: tf=0 Id=0 Vdd=20 Zo=5
*RD:
*EndSpec

*BeginTrace
*XC: 0,0,0,50,1,3,0,0,-1 (27)
*TC: 0,0,-5,10,1,3,0,0,-1 (27)
*RR: 0,0,0,50,1,3,0,0,-1 (27)
*ZL: 0,0,0,50,1,3,0,0,-1 (27)
*TO: 0,0,0,100.00E-9,1,3,0,0,-1 (27)
*OC: 0,0,0,50,1,3,0,0,-1 (27)
*ST: 0,0,0,50,1,3,0,0,-1 (27)
*RD: 1,0,.8,4,1,3,0,0,-1 (27)
*EndTrace

*BeginParam
*LEVEL=3 (1,4,1)
*L=2.0000E-6 (1.0000E-18,1.0000E30,0)
*W=.5 (1.0000E-18,1.0000E30,0)
*KP=20.000E-6 (1.0000E-18,1.0000E30,0)
*RS=10.000E-3 (1.0000E-18,1.0000E30,0)
*RD=10.000E-3 (1.0000E-18,1.0000E30,0)
*VTO=3 (-1.0000E30,1.0000E30,0)
*RDS=1.0000E6 (1.0000E-9,1.0000E30,0)
*TOX=2.0000E-6 (1.0000E-18,1.0000E30,0)
*CGSO=40.000E-12 (1.0000E-18,1,0)
*CGDO=10.000E-12 (1.0000E-18,1,0)
*CBD=1.0000E-9 (1.0000E-18,1,0)
*MJ=.5 (.1,1.5000,0)
*PB=.8 (.3905,3,0)
*FC=.5 (.1,5,0)
*RG=5 (10.000E-3,1.0000E30,0)
*IS=10.000E-15 (1.0000E-18,.1,0)
*N=1 (.1,5,0)
*RB=1.0000E-3 (1.0000E-9,100,0)
*PHI=.6 (1.0000E-3,1.0000E30,1)
*GAMMA=0 (0,1.0000E30,1)
*DELTA=0 (0,1.0000E30,1)
*ETA=0 (0,1.0000E30,1)
*THETA=0 (0,1.0000E30,1)
*KAPPA=0 (0,1.0000E30,1)
*VMAX=0 (0,1.0000E30,1)
*XJ=0 (0,1.0000E30,1)
*UO=600 (100.00E-18,1.0000E30,1)
*EndParam

*DEVICE=Mbreakn,NMOS

* Mbreakn NMOS model
* updated using Model Editor release 16.6.0 on 03/20/15 at 14:29
* The Model Editor is a PSpice product.
.MODEL Mbreakn NMOS
+ VTO = 0.7
+ KP = 25E-6
+ LAMBDA = 0.02
+ GAMMA = 0.9
+ TOX = 90E-9
+ NCH = 3.7E15
+ VERSION = 2
*$
